/PSS(R)E 34
COM
COM SUBSYSTEM description file entry created by PSS(R)E Config File Builder
COM
SUBSYSTEM 'IEEE30'
   BUS 1
   BUS 2
   BUS 3
   BUS 4
   BUS 5
   BUS 6
   BUS 7
   BUS 8
   BUS 9
   BUS 10
   BUS 11
   BUS 12
   BUS 13
   BUS 14
   BUS 15
   BUS 16
   BUS 17
   BUS 18
   BUS 19
   BUS 20
   BUS 21
   BUS 22
   BUS 23
   BUS 24
   BUS 25
   BUS 26
   BUS 27
   BUS 28
   BUS 29
   BUS 30
END
END
