/PSS(R)E 34
COM
COM SUBSYSTEM description file entry created by PSS(R)E Config File Builder
COM
SUBSYSTEM 'IEEE14'
   BUS 1
   BUS 2
   BUS 3
   BUS 4
   BUS 5
   BUS 6
   BUS 7
   BUS 8
   BUS 9
   BUS 10
   BUS 11
   BUS 12
   BUS 13
   BUS 14
END

SUBSYSTEM 'GEN1'
	BUS 1
END

SUBSYSTEM 'OPPOSING_GEN1'
	BUS 2
	BUS 3
END

SUBSYSTEM 'GEN2'
	BUS 2
END

SUBSYSTEM 'OPPOSING_GEN2'
	BUS 1
	BUS 3
END

SUBSYSTEM 'GEN3'
	BUS 3
END

SUBSYSTEM 'OPPOSING_GEN3'
	BUS 1
	BUS 2
END
END
